* NGSPICE file created from des_core.ext - technology: sky130A

* Black-box entry subcircuit for sky130_fd_sc_hd__mux2_1 abstract view
.subckt sky130_fd_sc_hd__mux2_1 A0 A1 S VGND VNB VPB VPWR X
.ends

* Black-box entry subcircuit for sky130_fd_sc_hd__tapvpwrvgnd_1 abstract view
.subckt sky130_fd_sc_hd__tapvpwrvgnd_1 VGND VPWR
.ends

* Black-box entry subcircuit for sky130_fd_sc_hd__decap_4 abstract view
.subckt sky130_fd_sc_hd__decap_4 VGND VNB VPB VPWR
.ends

* Black-box entry subcircuit for sky130_fd_sc_hd__decap_3 abstract view
.subckt sky130_fd_sc_hd__decap_3 VGND VNB VPB VPWR
.ends

* Black-box entry subcircuit for sky130_ef_sc_hd__decap_12 abstract view
.subckt sky130_ef_sc_hd__decap_12 VPWR VGND VPB VNB
.ends

* Black-box entry subcircuit for sky130_fd_sc_hd__decap_8 abstract view
.subckt sky130_fd_sc_hd__decap_8 VGND VNB VPB VPWR
.ends

* Black-box entry subcircuit for sky130_fd_sc_hd__fill_1 abstract view
.subckt sky130_fd_sc_hd__fill_1 VGND VNB VPB VPWR
.ends

* Black-box entry subcircuit for sky130_fd_sc_hd__and3b_2 abstract view
.subckt sky130_fd_sc_hd__and3b_2 A_N B C VGND VNB VPB VPWR X
.ends

* Black-box entry subcircuit for sky130_fd_sc_hd__a2bb2o_1 abstract view
.subckt sky130_fd_sc_hd__a2bb2o_1 A1_N A2_N B1 B2 VGND VNB VPB VPWR X
.ends

* Black-box entry subcircuit for sky130_fd_sc_hd__o22ai_1 abstract view
.subckt sky130_fd_sc_hd__o22ai_1 A1 A2 B1 B2 VGND VNB VPB VPWR Y
.ends

* Black-box entry subcircuit for sky130_fd_sc_hd__and3b_1 abstract view
.subckt sky130_fd_sc_hd__and3b_1 A_N B C VGND VNB VPB VPWR X
.ends

* Black-box entry subcircuit for sky130_fd_sc_hd__clkbuf_8 abstract view
.subckt sky130_fd_sc_hd__clkbuf_8 A VGND VNB VPB VPWR X
.ends

* Black-box entry subcircuit for sky130_fd_sc_hd__decap_6 abstract view
.subckt sky130_fd_sc_hd__decap_6 VGND VNB VPB VPWR
.ends

* Black-box entry subcircuit for sky130_fd_sc_hd__fill_2 abstract view
.subckt sky130_fd_sc_hd__fill_2 VGND VNB VPB VPWR
.ends

* Black-box entry subcircuit for sky130_fd_sc_hd__nand2_1 abstract view
.subckt sky130_fd_sc_hd__nand2_1 A B VGND VNB VPB VPWR Y
.ends

* Black-box entry subcircuit for sky130_fd_sc_hd__a21oi_1 abstract view
.subckt sky130_fd_sc_hd__a21oi_1 A1 A2 B1 VGND VNB VPB VPWR Y
.ends

* Black-box entry subcircuit for sky130_fd_sc_hd__dfxtp_1 abstract view
.subckt sky130_fd_sc_hd__dfxtp_1 CLK D VGND VNB VPB VPWR Q
.ends

* Black-box entry subcircuit for sky130_fd_sc_hd__a31o_1 abstract view
.subckt sky130_fd_sc_hd__a31o_1 A1 A2 A3 B1 VGND VNB VPB VPWR X
.ends

* Black-box entry subcircuit for sky130_fd_sc_hd__o211a_1 abstract view
.subckt sky130_fd_sc_hd__o211a_1 A1 A2 B1 C1 VGND VNB VPB VPWR X
.ends

* Black-box entry subcircuit for sky130_fd_sc_hd__o21a_1 abstract view
.subckt sky130_fd_sc_hd__o21a_1 A1 A2 B1 VGND VNB VPB VPWR X
.ends

* Black-box entry subcircuit for sky130_fd_sc_hd__dfxtp_2 abstract view
.subckt sky130_fd_sc_hd__dfxtp_2 CLK D VGND VNB VPB VPWR Q
.ends

* Black-box entry subcircuit for sky130_fd_sc_hd__and3_1 abstract view
.subckt sky130_fd_sc_hd__and3_1 A B C VGND VNB VPB VPWR X
.ends

* Black-box entry subcircuit for sky130_fd_sc_hd__diode_2 abstract view
.subckt sky130_fd_sc_hd__diode_2 DIODE VGND VNB VPB VPWR
.ends

* Black-box entry subcircuit for sky130_fd_sc_hd__nor2_1 abstract view
.subckt sky130_fd_sc_hd__nor2_1 A B VGND VNB VPB VPWR Y
.ends

* Black-box entry subcircuit for sky130_fd_sc_hd__a221o_1 abstract view
.subckt sky130_fd_sc_hd__a221o_1 A1 A2 B1 B2 C1 VGND VNB VPB VPWR X
.ends

* Black-box entry subcircuit for sky130_fd_sc_hd__o211ai_1 abstract view
.subckt sky130_fd_sc_hd__o211ai_1 A1 A2 B1 C1 VGND VNB VPB VPWR Y
.ends

* Black-box entry subcircuit for sky130_fd_sc_hd__clkbuf_1 abstract view
.subckt sky130_fd_sc_hd__clkbuf_1 A VGND VNB VPB VPWR X
.ends

* Black-box entry subcircuit for sky130_fd_sc_hd__and4_1 abstract view
.subckt sky130_fd_sc_hd__and4_1 A B C D VGND VNB VPB VPWR X
.ends

* Black-box entry subcircuit for sky130_fd_sc_hd__xnor2_1 abstract view
.subckt sky130_fd_sc_hd__xnor2_1 A B VGND VNB VPB VPWR Y
.ends

* Black-box entry subcircuit for sky130_fd_sc_hd__or3_4 abstract view
.subckt sky130_fd_sc_hd__or3_4 A B C VGND VNB VPB VPWR X
.ends

* Black-box entry subcircuit for sky130_fd_sc_hd__or3_2 abstract view
.subckt sky130_fd_sc_hd__or3_2 A B C VGND VNB VPB VPWR X
.ends

* Black-box entry subcircuit for sky130_fd_sc_hd__or3_1 abstract view
.subckt sky130_fd_sc_hd__or3_1 A B C VGND VNB VPB VPWR X
.ends

* Black-box entry subcircuit for sky130_fd_sc_hd__dfxtp_4 abstract view
.subckt sky130_fd_sc_hd__dfxtp_4 CLK D VGND VNB VPB VPWR Q
.ends

* Black-box entry subcircuit for sky130_fd_sc_hd__and2_1 abstract view
.subckt sky130_fd_sc_hd__and2_1 A B VGND VNB VPB VPWR X
.ends

* Black-box entry subcircuit for sky130_fd_sc_hd__or2_2 abstract view
.subckt sky130_fd_sc_hd__or2_2 A B VGND VNB VPB VPWR X
.ends

* Black-box entry subcircuit for sky130_fd_sc_hd__a21o_1 abstract view
.subckt sky130_fd_sc_hd__a21o_1 A1 A2 B1 VGND VNB VPB VPWR X
.ends

* Black-box entry subcircuit for sky130_fd_sc_hd__buf_1 abstract view
.subckt sky130_fd_sc_hd__buf_1 A VGND VNB VPB VPWR X
.ends

* Black-box entry subcircuit for sky130_fd_sc_hd__or3b_1 abstract view
.subckt sky130_fd_sc_hd__or3b_1 A B C_N VGND VNB VPB VPWR X
.ends

* Black-box entry subcircuit for sky130_fd_sc_hd__o311a_1 abstract view
.subckt sky130_fd_sc_hd__o311a_1 A1 A2 A3 B1 C1 VGND VNB VPB VPWR X
.ends

* Black-box entry subcircuit for sky130_fd_sc_hd__a21o_2 abstract view
.subckt sky130_fd_sc_hd__a21o_2 A1 A2 B1 VGND VNB VPB VPWR X
.ends

* Black-box entry subcircuit for sky130_fd_sc_hd__a211o_1 abstract view
.subckt sky130_fd_sc_hd__a211o_1 A1 A2 B1 C1 VGND VNB VPB VPWR X
.ends

* Black-box entry subcircuit for sky130_fd_sc_hd__xnor2_4 abstract view
.subckt sky130_fd_sc_hd__xnor2_4 A B VGND VNB VPB VPWR Y
.ends

* Black-box entry subcircuit for sky130_fd_sc_hd__inv_2 abstract view
.subckt sky130_fd_sc_hd__inv_2 A VGND VNB VPB VPWR Y
.ends

* Black-box entry subcircuit for sky130_fd_sc_hd__a22o_1 abstract view
.subckt sky130_fd_sc_hd__a22o_1 A1 A2 B1 B2 VGND VNB VPB VPWR X
.ends

* Black-box entry subcircuit for sky130_fd_sc_hd__o2bb2ai_1 abstract view
.subckt sky130_fd_sc_hd__o2bb2ai_1 A1_N A2_N B1 B2 VGND VNB VPB VPWR Y
.ends

* Black-box entry subcircuit for sky130_fd_sc_hd__or4_2 abstract view
.subckt sky130_fd_sc_hd__or4_2 A B C D VGND VNB VPB VPWR X
.ends

* Black-box entry subcircuit for sky130_fd_sc_hd__a21boi_2 abstract view
.subckt sky130_fd_sc_hd__a21boi_2 A1 A2 B1_N VGND VNB VPB VPWR Y
.ends

* Black-box entry subcircuit for sky130_fd_sc_hd__dfrtp_1 abstract view
.subckt sky130_fd_sc_hd__dfrtp_1 CLK D RESET_B VGND VNB VPB VPWR Q
.ends

* Black-box entry subcircuit for sky130_fd_sc_hd__a32oi_1 abstract view
.subckt sky130_fd_sc_hd__a32oi_1 A1 A2 A3 B1 B2 VGND VNB VPB VPWR Y
.ends

* Black-box entry subcircuit for sky130_fd_sc_hd__a211oi_2 abstract view
.subckt sky130_fd_sc_hd__a211oi_2 A1 A2 B1 C1 VGND VNB VPB VPWR Y
.ends

* Black-box entry subcircuit for sky130_fd_sc_hd__nor3_1 abstract view
.subckt sky130_fd_sc_hd__nor3_1 A B C VGND VNB VPB VPWR Y
.ends

* Black-box entry subcircuit for sky130_fd_sc_hd__o2111a_1 abstract view
.subckt sky130_fd_sc_hd__o2111a_1 A1 A2 B1 C1 D1 VGND VNB VPB VPWR X
.ends

* Black-box entry subcircuit for sky130_fd_sc_hd__xor2_2 abstract view
.subckt sky130_fd_sc_hd__xor2_2 A B VGND VNB VPB VPWR X
.ends

* Black-box entry subcircuit for sky130_fd_sc_hd__xor2_4 abstract view
.subckt sky130_fd_sc_hd__xor2_4 A B VGND VNB VPB VPWR X
.ends

* Black-box entry subcircuit for sky130_fd_sc_hd__nor4_2 abstract view
.subckt sky130_fd_sc_hd__nor4_2 A B C D VGND VNB VPB VPWR Y
.ends

* Black-box entry subcircuit for sky130_fd_sc_hd__a311oi_1 abstract view
.subckt sky130_fd_sc_hd__a311oi_1 A1 A2 A3 B1 C1 VGND VNB VPB VPWR Y
.ends

* Black-box entry subcircuit for sky130_fd_sc_hd__clkbuf_4 abstract view
.subckt sky130_fd_sc_hd__clkbuf_4 A VGND VNB VPB VPWR X
.ends

* Black-box entry subcircuit for sky130_fd_sc_hd__o221a_1 abstract view
.subckt sky130_fd_sc_hd__o221a_1 A1 A2 B1 B2 C1 VGND VNB VPB VPWR X
.ends

* Black-box entry subcircuit for sky130_fd_sc_hd__mux2_4 abstract view
.subckt sky130_fd_sc_hd__mux2_4 A0 A1 S VGND VNB VPB VPWR X
.ends

* Black-box entry subcircuit for sky130_fd_sc_hd__bufinv_16 abstract view
.subckt sky130_fd_sc_hd__bufinv_16 A VGND VNB VPB VPWR Y
.ends

* Black-box entry subcircuit for sky130_fd_sc_hd__o22a_1 abstract view
.subckt sky130_fd_sc_hd__o22a_1 A1 A2 B1 B2 VGND VNB VPB VPWR X
.ends

* Black-box entry subcircuit for sky130_fd_sc_hd__o21ai_1 abstract view
.subckt sky130_fd_sc_hd__o21ai_1 A1 A2 B1 VGND VNB VPB VPWR Y
.ends

* Black-box entry subcircuit for sky130_fd_sc_hd__o21ai_2 abstract view
.subckt sky130_fd_sc_hd__o21ai_2 A1 A2 B1 VGND VNB VPB VPWR Y
.ends

* Black-box entry subcircuit for sky130_fd_sc_hd__a32o_1 abstract view
.subckt sky130_fd_sc_hd__a32o_1 A1 A2 A3 B1 B2 VGND VNB VPB VPWR X
.ends

* Black-box entry subcircuit for sky130_fd_sc_hd__or2_1 abstract view
.subckt sky130_fd_sc_hd__or2_1 A B VGND VNB VPB VPWR X
.ends

* Black-box entry subcircuit for sky130_fd_sc_hd__a31oi_1 abstract view
.subckt sky130_fd_sc_hd__a31oi_1 A1 A2 A3 B1 VGND VNB VPB VPWR Y
.ends

* Black-box entry subcircuit for sky130_fd_sc_hd__o22ai_2 abstract view
.subckt sky130_fd_sc_hd__o22ai_2 A1 A2 B1 B2 VGND VNB VPB VPWR Y
.ends

* Black-box entry subcircuit for sky130_fd_sc_hd__xor2_1 abstract view
.subckt sky130_fd_sc_hd__xor2_1 A B VGND VNB VPB VPWR X
.ends

* Black-box entry subcircuit for sky130_fd_sc_hd__or4_1 abstract view
.subckt sky130_fd_sc_hd__or4_1 A B C D VGND VNB VPB VPWR X
.ends

* Black-box entry subcircuit for sky130_fd_sc_hd__o21ba_1 abstract view
.subckt sky130_fd_sc_hd__o21ba_1 A1 A2 B1_N VGND VNB VPB VPWR X
.ends

* Black-box entry subcircuit for sky130_fd_sc_hd__clkinvlp_4 abstract view
.subckt sky130_fd_sc_hd__clkinvlp_4 A VGND VNB VPB VPWR Y
.ends

* Black-box entry subcircuit for sky130_fd_sc_hd__buf_2 abstract view
.subckt sky130_fd_sc_hd__buf_2 A VGND VNB VPB VPWR X
.ends

* Black-box entry subcircuit for sky130_fd_sc_hd__clkbuf_2 abstract view
.subckt sky130_fd_sc_hd__clkbuf_2 A VGND VNB VPB VPWR X
.ends

* Black-box entry subcircuit for sky130_fd_sc_hd__clkbuf_16 abstract view
.subckt sky130_fd_sc_hd__clkbuf_16 A VGND VNB VPB VPWR X
.ends

* Black-box entry subcircuit for sky130_fd_sc_hd__o211ai_2 abstract view
.subckt sky130_fd_sc_hd__o211ai_2 A1 A2 B1 C1 VGND VNB VPB VPWR Y
.ends

* Black-box entry subcircuit for sky130_fd_sc_hd__o31a_1 abstract view
.subckt sky130_fd_sc_hd__o31a_1 A1 A2 A3 B1 VGND VNB VPB VPWR X
.ends

* Black-box entry subcircuit for sky130_fd_sc_hd__clkinv_4 abstract view
.subckt sky130_fd_sc_hd__clkinv_4 A VGND VNB VPB VPWR Y
.ends

* Black-box entry subcircuit for sky130_fd_sc_hd__nor2_2 abstract view
.subckt sky130_fd_sc_hd__nor2_2 A B VGND VNB VPB VPWR Y
.ends

* Black-box entry subcircuit for sky130_fd_sc_hd__a21oi_2 abstract view
.subckt sky130_fd_sc_hd__a21oi_2 A1 A2 B1 VGND VNB VPB VPWR Y
.ends

* Black-box entry subcircuit for sky130_fd_sc_hd__or2_4 abstract view
.subckt sky130_fd_sc_hd__or2_4 A B VGND VNB VPB VPWR X
.ends

* Black-box entry subcircuit for sky130_fd_sc_hd__o31ai_2 abstract view
.subckt sky130_fd_sc_hd__o31ai_2 A1 A2 A3 B1 VGND VNB VPB VPWR Y
.ends

* Black-box entry subcircuit for sky130_fd_sc_hd__buf_4 abstract view
.subckt sky130_fd_sc_hd__buf_4 A VGND VNB VPB VPWR X
.ends

* Black-box entry subcircuit for sky130_fd_sc_hd__o32a_1 abstract view
.subckt sky130_fd_sc_hd__o32a_1 A1 A2 A3 B1 B2 VGND VNB VPB VPWR X
.ends

* Black-box entry subcircuit for sky130_fd_sc_hd__nor3b_1 abstract view
.subckt sky130_fd_sc_hd__nor3b_1 A B C_N VGND VNB VPB VPWR Y
.ends

* Black-box entry subcircuit for sky130_fd_sc_hd__a21boi_1 abstract view
.subckt sky130_fd_sc_hd__a21boi_1 A1 A2 B1_N VGND VNB VPB VPWR Y
.ends

* Black-box entry subcircuit for sky130_fd_sc_hd__and2_2 abstract view
.subckt sky130_fd_sc_hd__and2_2 A B VGND VNB VPB VPWR X
.ends

* Black-box entry subcircuit for sky130_fd_sc_hd__or4b_1 abstract view
.subckt sky130_fd_sc_hd__or4b_1 A B C D_N VGND VNB VPB VPWR X
.ends

* Black-box entry subcircuit for sky130_fd_sc_hd__xnor2_2 abstract view
.subckt sky130_fd_sc_hd__xnor2_2 A B VGND VNB VPB VPWR Y
.ends

* Black-box entry subcircuit for sky130_fd_sc_hd__nand3_2 abstract view
.subckt sky130_fd_sc_hd__nand3_2 A B C VGND VNB VPB VPWR Y
.ends

* Black-box entry subcircuit for sky130_fd_sc_hd__nand2_2 abstract view
.subckt sky130_fd_sc_hd__nand2_2 A B VGND VNB VPB VPWR Y
.ends

* Black-box entry subcircuit for sky130_fd_sc_hd__and2b_1 abstract view
.subckt sky130_fd_sc_hd__and2b_1 A_N B VGND VNB VPB VPWR X
.ends

* Black-box entry subcircuit for sky130_fd_sc_hd__a21bo_1 abstract view
.subckt sky130_fd_sc_hd__a21bo_1 A1 A2 B1_N VGND VNB VPB VPWR X
.ends

* Black-box entry subcircuit for sky130_fd_sc_hd__mux2_8 abstract view
.subckt sky130_fd_sc_hd__mux2_8 A0 A1 S VGND VNB VPB VPWR X
.ends

* Black-box entry subcircuit for sky130_fd_sc_hd__o22ai_4 abstract view
.subckt sky130_fd_sc_hd__o22ai_4 A1 A2 B1 B2 VGND VNB VPB VPWR Y
.ends

* Black-box entry subcircuit for sky130_fd_sc_hd__a311o_1 abstract view
.subckt sky130_fd_sc_hd__a311o_1 A1 A2 A3 B1 C1 VGND VNB VPB VPWR X
.ends

* Black-box entry subcircuit for sky130_fd_sc_hd__nand3b_1 abstract view
.subckt sky130_fd_sc_hd__nand3b_1 A_N B C VGND VNB VPB VPWR Y
.ends

* Black-box entry subcircuit for sky130_fd_sc_hd__and4bb_1 abstract view
.subckt sky130_fd_sc_hd__and4bb_1 A_N B_N C D VGND VNB VPB VPWR X
.ends

* Black-box entry subcircuit for sky130_fd_sc_hd__a31o_2 abstract view
.subckt sky130_fd_sc_hd__a31o_2 A1 A2 A3 B1 VGND VNB VPB VPWR X
.ends

* Black-box entry subcircuit for sky130_fd_sc_hd__and4b_1 abstract view
.subckt sky130_fd_sc_hd__and4b_1 A_N B C D VGND VNB VPB VPWR X
.ends

* Black-box entry subcircuit for sky130_fd_sc_hd__nand3b_2 abstract view
.subckt sky130_fd_sc_hd__nand3b_2 A_N B C VGND VNB VPB VPWR Y
.ends

* Black-box entry subcircuit for sky130_fd_sc_hd__nand2b_1 abstract view
.subckt sky130_fd_sc_hd__nand2b_1 A_N B VGND VNB VPB VPWR Y
.ends

* Black-box entry subcircuit for sky130_fd_sc_hd__o2bb2a_1 abstract view
.subckt sky130_fd_sc_hd__o2bb2a_1 A1_N A2_N B1 B2 VGND VNB VPB VPWR X
.ends

* Black-box entry subcircuit for sky130_fd_sc_hd__o31ai_1 abstract view
.subckt sky130_fd_sc_hd__o31ai_1 A1 A2 A3 B1 VGND VNB VPB VPWR Y
.ends

* Black-box entry subcircuit for sky130_fd_sc_hd__o41a_1 abstract view
.subckt sky130_fd_sc_hd__o41a_1 A1 A2 A3 A4 B1 VGND VNB VPB VPWR X
.ends

* Black-box entry subcircuit for sky130_fd_sc_hd__or3b_2 abstract view
.subckt sky130_fd_sc_hd__or3b_2 A B C_N VGND VNB VPB VPWR X
.ends

* Black-box entry subcircuit for sky130_fd_sc_hd__o2bb2ai_2 abstract view
.subckt sky130_fd_sc_hd__o2bb2ai_2 A1_N A2_N B1 B2 VGND VNB VPB VPWR Y
.ends

* Black-box entry subcircuit for sky130_fd_sc_hd__dfrtp_2 abstract view
.subckt sky130_fd_sc_hd__dfrtp_2 CLK D RESET_B VGND VNB VPB VPWR Q
.ends

* Black-box entry subcircuit for sky130_fd_sc_hd__and3_2 abstract view
.subckt sky130_fd_sc_hd__and3_2 A B C VGND VNB VPB VPWR X
.ends

* Black-box entry subcircuit for sky130_fd_sc_hd__or4_4 abstract view
.subckt sky130_fd_sc_hd__or4_4 A B C D VGND VNB VPB VPWR X
.ends

* Black-box entry subcircuit for sky130_fd_sc_hd__dfrtp_4 abstract view
.subckt sky130_fd_sc_hd__dfrtp_4 CLK D RESET_B VGND VNB VPB VPWR Q
.ends

* Black-box entry subcircuit for sky130_fd_sc_hd__o221ai_1 abstract view
.subckt sky130_fd_sc_hd__o221ai_1 A1 A2 B1 B2 C1 VGND VNB VPB VPWR Y
.ends

* Black-box entry subcircuit for sky130_fd_sc_hd__nand3_1 abstract view
.subckt sky130_fd_sc_hd__nand3_1 A B C VGND VNB VPB VPWR Y
.ends

* Black-box entry subcircuit for sky130_fd_sc_hd__o22a_2 abstract view
.subckt sky130_fd_sc_hd__o22a_2 A1 A2 B1 B2 VGND VNB VPB VPWR X
.ends

* Black-box entry subcircuit for sky130_fd_sc_hd__a2111o_1 abstract view
.subckt sky130_fd_sc_hd__a2111o_1 A1 A2 B1 C1 D1 VGND VNB VPB VPWR X
.ends

* Black-box entry subcircuit for sky130_fd_sc_hd__o211ai_4 abstract view
.subckt sky130_fd_sc_hd__o211ai_4 A1 A2 B1 C1 VGND VNB VPB VPWR Y
.ends

* Black-box entry subcircuit for sky130_fd_sc_hd__a21oi_4 abstract view
.subckt sky130_fd_sc_hd__a21oi_4 A1 A2 B1 VGND VNB VPB VPWR Y
.ends

* Black-box entry subcircuit for sky130_fd_sc_hd__a211oi_1 abstract view
.subckt sky130_fd_sc_hd__a211oi_1 A1 A2 B1 C1 VGND VNB VPB VPWR Y
.ends

* Black-box entry subcircuit for sky130_fd_sc_hd__a211o_2 abstract view
.subckt sky130_fd_sc_hd__a211o_2 A1 A2 B1 C1 VGND VNB VPB VPWR X
.ends

* Black-box entry subcircuit for sky130_fd_sc_hd__a21boi_4 abstract view
.subckt sky130_fd_sc_hd__a21boi_4 A1 A2 B1_N VGND VNB VPB VPWR Y
.ends

.subckt des_core VGND VPWR clk des_data[0] des_data[10] des_data[11] des_data[12]
+ des_data[13] des_data[14] des_data[15] des_data[16] des_data[17] des_data[18] des_data[19]
+ des_data[1] des_data[20] des_data[21] des_data[22] des_data[23] des_data[24] des_data[25]
+ des_data[26] des_data[27] des_data[28] des_data[29] des_data[2] des_data[30] des_data[31]
+ des_data[32] des_data[33] des_data[34] des_data[35] des_data[36] des_data[37] des_data[38]
+ des_data[39] des_data[3] des_data[40] des_data[41] des_data[42] des_data[43] des_data[44]
+ des_data[45] des_data[46] des_data[47] des_data[48] des_data[49] des_data[4] des_data[50]
+ des_data[51] des_data[52] des_data[53] des_data[54] des_data[55] des_data[56] des_data[57]
+ des_data[58] des_data[59] des_data[5] des_data[60] des_data[61] des_data[62] des_data[63]
+ des_data[6] des_data[7] des_data[8] des_data[9] des_decipher_en des_encipher_en
+ des_key_in[0] des_key_in[10] des_key_in[11] des_key_in[12] des_key_in[13] des_key_in[14]
+ des_key_in[15] des_key_in[16] des_key_in[17] des_key_in[18] des_key_in[19] des_key_in[1]
+ des_key_in[20] des_key_in[21] des_key_in[22] des_key_in[23] des_key_in[24] des_key_in[25]
+ des_key_in[26] des_key_in[27] des_key_in[28] des_key_in[29] des_key_in[2] des_key_in[30]
+ des_key_in[31] des_key_in[32] des_key_in[33] des_key_in[34] des_key_in[35] des_key_in[36]
+ des_key_in[37] des_key_in[38] des_key_in[39] des_key_in[3] des_key_in[40] des_key_in[41]
+ des_key_in[42] des_key_in[43] des_key_in[44] des_key_in[45] des_key_in[46] des_key_in[47]
+ des_key_in[48] des_key_in[49] des_key_in[4] des_key_in[50] des_key_in[51] des_key_in[52]
+ des_key_in[53] des_key_in[54] des_key_in[55] des_key_in[56] des_key_in[57] des_key_in[58]
+ des_key_in[59] des_key_in[5] des_key_in[60] des_key_in[61] des_key_in[62] des_key_in[63]
+ des_key_in[6] des_key_in[7] des_key_in[8] des_key_in[9] desc_ready desc_result[0]
+ desc_result[10] desc_result[11] desc_result[12] desc_result[13] desc_result[14]
+ desc_result[15] desc_result[16] desc_result[17] desc_result[18] desc_result[19]
+ desc_result[1] desc_result[20] desc_result[21] desc_result[22] desc_result[23] desc_result[24]
+ desc_result[25] desc_result[26] desc_result[27] desc_result[28] desc_result[29]
+ desc_result[2] desc_result[30] desc_result[31] desc_result[32] desc_result[33] desc_result[34]
+ desc_result[35] desc_result[36] desc_result[37] desc_result[38] desc_result[39]
+ desc_result[3] desc_result[40] desc_result[41] desc_result[42] desc_result[43] desc_result[44]
+ desc_result[45] desc_result[46] desc_result[47] desc_result[48] desc_result[49]
+ desc_result[4] desc_result[50] desc_result[51] desc_result[52] desc_result[53] desc_result[54]
+ desc_result[55] desc_result[56] desc_result[57] desc_result[58] desc_result[59]
+ desc_result[5] desc_result[60] desc_result[61] desc_result[62] desc_result[63] desc_result[6]
+ desc_result[7] desc_result[8] desc_result[9] rst_n
X_2106_ _0431_ _0435_ net215 VGND VGND VPWR VPWR _0446_ sky130_fd_sc_hd__mux2_1
X_2037_ _0390_ _0389_ net200 VGND VGND VPWR VPWR _0391_ sky130_fd_sc_hd__mux2_1
XTAP_TAPCELL_ROW_60_492 VGND VPWR sky130_fd_sc_hd__tapvpwrvgnd_1
XFILLER_52_18 VGND VGND VPWR VPWR sky130_fd_sc_hd__decap_4
XFILLER_10_317 VGND VGND VPWR VPWR sky130_fd_sc_hd__decap_3
XFILLER_22_177 VPWR VGND VPWR VGND sky130_ef_sc_hd__decap_12
XFILLER_45_225 VPWR VGND VPWR VGND sky130_ef_sc_hd__decap_12
XFILLER_26_85 VGND VGND VPWR VPWR sky130_fd_sc_hd__decap_8
XFILLER_9_104 VGND VGND VPWR VPWR sky130_fd_sc_hd__decap_8
XFILLER_9_137 VGND VGND VPWR VPWR sky130_fd_sc_hd__decap_4
XFILLER_5_332 VGND VGND VPWR VPWR sky130_fd_sc_hd__decap_4
XFILLER_3_23 VGND VGND VPWR VPWR sky130_fd_sc_hd__fill_1
XTAP_TAPCELL_ROW_8_181 VGND VPWR sky130_fd_sc_hd__tapvpwrvgnd_1
X_1270_ cn\[2\] _0665_ _0666_ VGND VGND VPWR VPWR _0668_ sky130_fd_sc_hd__and3b_2
X_1606_ net191 _0994_ _0823_ _0820_ VGND VGND VPWR VPWR _0995_ sky130_fd_sc_hd__a2bb2o_1
X_1537_ _0898_ _0899_ _0902_ _0903_ VGND VGND VPWR VPWR _0930_ sky130_fd_sc_hd__o22ai_1
X_1468_ cn\[8\] _0860_ _0861_ VGND VGND VPWR VPWR _0862_ sky130_fd_sc_hd__and3b_1
X_1399_ net142 net17 net220 VGND VGND VPWR VPWR _0795_ sky130_fd_sc_hd__mux2_1
XFILLER_27_225 VGND VGND VPWR VPWR sky130_fd_sc_hd__decap_3
XFILLER_6_129 VGND VGND VPWR VPWR sky130_fd_sc_hd__fill_1
XFILLER_10_103 VPWR VGND VPWR VGND sky130_ef_sc_hd__decap_12
XFILLER_58_361 VGND VGND VPWR VPWR sky130_fd_sc_hd__fill_1
XTAP_TAPCELL_ROW_5_162 VGND VPWR sky130_fd_sc_hd__tapvpwrvgnd_1
XFILLER_18_225 VPWR VGND VPWR VGND sky130_ef_sc_hd__decap_12
XFILLER_18_247 VGND VGND VPWR VPWR sky130_fd_sc_hd__decap_4
XFILLER_41_250 VGND VGND VPWR VPWR sky130_fd_sc_hd__decap_8
XTAP_TAPCELL_ROW_28_297 VGND VPWR sky130_fd_sc_hd__tapvpwrvgnd_1
XFILLER_52_6 VGND VGND VPWR VPWR sky130_fd_sc_hd__decap_3
XTAP_TAPCELL_ROW_11_197 VGND VPWR sky130_fd_sc_hd__tapvpwrvgnd_1
X_1253_ net5 net237 net230 VGND VGND VPWR VPWR _0651_ sky130_fd_sc_hd__and3b_1
X_1322_ cn_dn\[11\] _0717_ _0718_ VGND VGND VPWR VPWR _0719_ sky130_fd_sc_hd__and3b_2
X_1184_ net53 net238 net231 VGND VGND VPWR VPWR _0583_ sky130_fd_sc_hd__and3b_1
XTAP_TAPCELL_ROW_19_242 VGND VPWR sky130_fd_sc_hd__tapvpwrvgnd_1
Xclkbuf_4_12_0_clk clknet_0_clk VGND VGND VPWR VPWR clknet_4_12_0_clk sky130_fd_sc_hd__clkbuf_8
XFILLER_32_261 VGND VGND VPWR VPWR sky130_fd_sc_hd__fill_1
XFILLER_59_169 VPWR VGND VPWR VGND sky130_ef_sc_hd__decap_12
XTAP_TAPCELL_ROW_2_143 VGND VPWR sky130_fd_sc_hd__tapvpwrvgnd_1
XTAP_TAPCELL_ROW_25_278 VGND VPWR sky130_fd_sc_hd__tapvpwrvgnd_1
XFILLER_23_261 VGND VGND VPWR VPWR sky130_fd_sc_hd__fill_1
XFILLER_38_309 VGND VGND VPWR VPWR sky130_fd_sc_hd__decap_6
XFILLER_48_72 VGND VGND VPWR VPWR sky130_fd_sc_hd__decap_6
XFILLER_46_331 VGND VGND VPWR VPWR sky130_fd_sc_hd__fill_1
XFILLER_0_57 VGND VGND VPWR VPWR sky130_fd_sc_hd__fill_1
XFILLER_17_9 VGND VGND VPWR VPWR sky130_fd_sc_hd__fill_2
X_1871_ rcounter\[2\] rcounter\[1\] VGND VGND VPWR VPWR _0260_ sky130_fd_sc_hd__nand2_1
X_1940_ cn\[8\] _0313_ net224 VGND VGND VPWR VPWR _0048_ sky130_fd_sc_hd__mux2_1
XFILLER_56_117 VGND VGND VPWR VPWR sky130_fd_sc_hd__fill_2
X_1305_ net195 _0692_ _0702_ VGND VGND VPWR VPWR _0703_ sky130_fd_sc_hd__a21oi_1
X_2285_ clknet_4_14_0_clk _0069_ VGND VGND VPWR VPWR cn_dn\[1\] sky130_fd_sc_hd__dfxtp_1
X_1236_ _0597_ _0615_ _0616_ _0625_ VGND VGND VPWR VPWR _0635_ sky130_fd_sc_hd__a31o_1
XFILLER_12_209 VPWR VGND VPWR VGND sky130_ef_sc_hd__decap_12
X_1167_ _0544_ _0549_ _0551_ _0530_ VGND VGND VPWR VPWR _0567_ sky130_fd_sc_hd__o211a_1
XFILLER_60_29 VPWR VGND VPWR VGND sky130_ef_sc_hd__decap_12
XFILLER_20_253 VGND VGND VPWR VPWR sky130_fd_sc_hd__decap_4
XFILLER_20_275 VPWR VGND VPWR VGND sky130_ef_sc_hd__decap_12
XPHY_EDGE_ROW_8_Left_69 VGND VGND VPWR VPWR sky130_fd_sc_hd__decap_3
XFILLER_55_150 VGND VGND VPWR VPWR sky130_fd_sc_hd__fill_2
XFILLER_47_128 VGND VGND VPWR VPWR sky130_fd_sc_hd__decap_8
XFILLER_47_106 VGND VGND VPWR VPWR sky130_fd_sc_hd__fill_2
XFILLER_28_331 VGND VGND VPWR VPWR sky130_fd_sc_hd__decap_6
XFILLER_34_85 VGND VGND VPWR VPWR sky130_fd_sc_hd__decap_8
X_2070_ cn_dn\[6\] _0417_ net226 VGND VGND VPWR VPWR _0074_ sky130_fd_sc_hd__mux2_1
XFILLER_19_331 VGND VGND VPWR VPWR sky130_fd_sc_hd__decap_4
X_1785_ _0174_ _0176_ _0925_ VGND VGND VPWR VPWR _0182_ sky130_fd_sc_hd__o21a_1
XTAP_TAPCELL_ROW_44_395 VGND VPWR sky130_fd_sc_hd__tapvpwrvgnd_1
X_1923_ _0295_ _0299_ net198 VGND VGND VPWR VPWR _0300_ sky130_fd_sc_hd__mux2_1
X_1854_ net193 net192 _0775_ VGND VGND VPWR VPWR _0245_ sky130_fd_sc_hd__a21oi_1
XFILLER_37_183 VPWR VGND VPWR VGND sky130_ef_sc_hd__decap_12
X_2268_ clknet_4_4_0_clk _0052_ VGND VGND VPWR VPWR cn\[12\] sky130_fd_sc_hd__dfxtp_2
X_2199_ net146 _0667_ net240 VGND VGND VPWR VPWR _0116_ sky130_fd_sc_hd__mux2_1
X_1219_ _0598_ _0615_ _0616_ VGND VGND VPWR VPWR _0618_ sky130_fd_sc_hd__and3_1
X_2337_ clknet_4_0_0_clk _0121_ VGND VGND VPWR VPWR net175 sky130_fd_sc_hd__dfxtp_1
XFILLER_52_197 VGND VGND VPWR VPWR sky130_fd_sc_hd__decap_6
XTAP_TAPCELL_ROW_35_340 VGND VPWR sky130_fd_sc_hd__tapvpwrvgnd_1
XTAP_TAPCELL_ROW_58_476 VGND VPWR sky130_fd_sc_hd__tapvpwrvgnd_1
XFILLER_45_73 VPWR VGND VPWR VGND sky130_ef_sc_hd__decap_12
XFILLER_43_186 VGND VGND VPWR VPWR sky130_fd_sc_hd__decap_8
XFILLER_43_131 VGND VGND VPWR VPWR sky130_fd_sc_hd__fill_2
XFILLER_35_109 VGND VGND VPWR VPWR sky130_fd_sc_hd__decap_3
XTAP_TAPCELL_ROW_41_376 VGND VPWR sky130_fd_sc_hd__tapvpwrvgnd_1
XANTENNA_5 net231 VGND VGND VPWR VPWR sky130_fd_sc_hd__diode_2
XFILLER_3_293 VPWR VGND VPWR VGND sky130_ef_sc_hd__decap_12
X_1570_ _0617_ _0960_ VGND VGND VPWR VPWR _0961_ sky130_fd_sc_hd__nor2_1
X_2122_ cn_dn\[19\] net86 net206 VGND VGND VPWR VPWR _0459_ sky130_fd_sc_hd__mux2_1
X_2053_ _0399_ _0403_ net202 VGND VGND VPWR VPWR _0404_ sky130_fd_sc_hd__mux2_1
XTAP_TAPCELL_ROW_32_321 VGND VPWR sky130_fd_sc_hd__tapvpwrvgnd_1
XFILLER_22_304 VGND VGND VPWR VPWR sky130_fd_sc_hd__decap_4
X_1906_ _0281_ _0277_ net212 VGND VGND VPWR VPWR _0286_ sky130_fd_sc_hd__mux2_1
X_1837_ _0919_ _0935_ _0228_ VGND VGND VPWR VPWR _0229_ sky130_fd_sc_hd__and3_1
X_1768_ _0590_ _0629_ _0165_ _0621_ _0587_ VGND VGND VPWR VPWR _0166_ sky130_fd_sc_hd__a221o_1
XFILLER_57_223 VGND VGND VPWR VPWR sky130_fd_sc_hd__fill_1
X_1699_ _0901_ _0917_ _0932_ _1079_ VGND VGND VPWR VPWR _1081_ sky130_fd_sc_hd__o211ai_1
XFILLER_25_120 VPWR VGND VPWR VGND sky130_ef_sc_hd__decap_12
XFILLER_13_315 VGND VGND VPWR VPWR sky130_fd_sc_hd__decap_4
XFILLER_40_167 VGND VGND VPWR VPWR sky130_fd_sc_hd__fill_1
XFILLER_31_31 VGND VGND VPWR VPWR sky130_fd_sc_hd__fill_2
XFILLER_31_86 VGND VGND VPWR VPWR sky130_fd_sc_hd__decap_8
XFILLER_48_212 VGND VGND VPWR VPWR sky130_fd_sc_hd__fill_2
Xinput120 des_key_in[6] VGND VGND VPWR VPWR net120 sky130_fd_sc_hd__clkbuf_1
XFILLER_16_153 VGND VGND VPWR VPWR sky130_fd_sc_hd__fill_1
XFILLER_16_186 VGND VGND VPWR VPWR sky130_fd_sc_hd__decap_8
XFILLER_16_197 VPWR VGND VPWR VGND sky130_ef_sc_hd__decap_12
X_1622_ net143 _1009_ net244 VGND VGND VPWR VPWR _0013_ sky130_fd_sc_hd__mux2_1
X_1553_ _0702_ _0944_ _0677_ VGND VGND VPWR VPWR _0945_ sky130_fd_sc_hd__and3b_1
X_1484_ _0852_ _0853_ _0863_ _0865_ VGND VGND VPWR VPWR _0878_ sky130_fd_sc_hd__and4_1
X_2105_ cn_dn\[13\] _0445_ net227 VGND VGND VPWR VPWR _0081_ sky130_fd_sc_hd__mux2_1
X_2036_ cn_dn\[1\] net108 net206 VGND VGND VPWR VPWR _0390_ sky130_fd_sc_hd__mux2_1
XTAP_TAPCELL_ROW_60_493 VGND VPWR sky130_fd_sc_hd__tapvpwrvgnd_1
XFILLER_22_189 VGND VGND VPWR VPWR sky130_fd_sc_hd__decap_6
XFILLER_53_281 VGND VGND VPWR VPWR sky130_fd_sc_hd__decap_8
XFILLER_45_237 VPWR VGND VPWR VGND sky130_ef_sc_hd__decap_12
XPHY_EDGE_ROW_37_Left_98 VGND VGND VPWR VPWR sky130_fd_sc_hd__decap_3
XFILLER_26_20 VGND VGND VPWR VPWR sky130_fd_sc_hd__decap_8
XFILLER_13_167 VGND VGND VPWR VPWR sky130_fd_sc_hd__fill_1
XPHY_EDGE_ROW_39_Left_100 VGND VGND VPWR VPWR sky130_fd_sc_hd__decap_3
XFILLER_5_355 VGND VGND VPWR VPWR sky130_fd_sc_hd__fill_1
XFILLER_47_9 VGND VGND VPWR VPWR sky130_fd_sc_hd__decap_4
X_1536_ _0900_ _0910_ _0905_ VGND VGND VPWR VPWR _0929_ sky130_fd_sc_hd__mux2_1
X_1605_ _0803_ _0814_ VGND VGND VPWR VPWR _0994_ sky130_fd_sc_hd__xnor2_1
X_1398_ _0758_ _0793_ _0790_ VGND VGND VPWR VPWR _0794_ sky130_fd_sc_hd__mux2_1
X_1467_ net49 net234 net232 VGND VGND VPWR VPWR _0861_ sky130_fd_sc_hd__or3_4
XFILLER_42_207 VGND VGND VPWR VPWR sky130_fd_sc_hd__decap_8
X_2019_ cn\[24\] _0376_ net222 VGND VGND VPWR VPWR _0064_ sky130_fd_sc_hd__mux2_1
XFILLER_10_115 VGND VGND VPWR VPWR sky130_fd_sc_hd__decap_8
XFILLER_10_137 VGND VGND VPWR VPWR sky130_fd_sc_hd__decap_3
XTAP_TAPCELL_ROW_5_163 VGND VPWR sky130_fd_sc_hd__tapvpwrvgnd_1
XFILLER_18_237 VGND VGND VPWR VPWR sky130_fd_sc_hd__fill_1
XTAP_TAPCELL_ROW_28_298 VGND VPWR sky130_fd_sc_hd__tapvpwrvgnd_1
XTAP_TAPCELL_ROW_11_198 VGND VPWR sky130_fd_sc_hd__tapvpwrvgnd_1
X_1252_ net237 net230 net128 VGND VGND VPWR VPWR _0650_ sky130_fd_sc_hd__a21oi_1
X_1321_ net47 net235 net233 VGND VGND VPWR VPWR _0718_ sky130_fd_sc_hd__or3_2
X_1183_ net238 net231 net176 VGND VGND VPWR VPWR _0582_ sky130_fd_sc_hd__a21oi_1
XTAP_TAPCELL_ROW_19_243 VGND VPWR sky130_fd_sc_hd__tapvpwrvgnd_1
XFILLER_32_251 VGND VGND VPWR VPWR sky130_fd_sc_hd__fill_1
XFILLER_58_29 VPWR VGND VPWR VGND sky130_ef_sc_hd__decap_12
X_1519_ _0905_ _0910_ VGND VGND VPWR VPWR _0912_ sky130_fd_sc_hd__nor2_1
XPHY_EDGE_ROW_12_Right_12 VGND VGND VPWR VPWR sky130_fd_sc_hd__decap_3
XTAP_TAPCELL_ROW_2_144 VGND VPWR sky130_fd_sc_hd__tapvpwrvgnd_1
XPHY_EDGE_ROW_21_Right_21 VGND VGND VPWR VPWR sky130_fd_sc_hd__decap_3
XTAP_TAPCELL_ROW_25_279 VGND VPWR sky130_fd_sc_hd__tapvpwrvgnd_1
XPHY_EDGE_ROW_30_Right_30 VGND VGND VPWR VPWR sky130_fd_sc_hd__decap_3
XFILLER_2_188 VGND VGND VPWR VPWR sky130_fd_sc_hd__decap_8
XFILLER_2_155 VGND VGND VPWR VPWR sky130_fd_sc_hd__fill_2
XFILLER_58_181 VPWR VGND VPWR VGND sky130_ef_sc_hd__decap_12
XTAP_TAPCELL_ROW_16_224 VGND VPWR sky130_fd_sc_hd__tapvpwrvgnd_1
X_1870_ rcounter\[0\] rcounter\[3\] VGND VGND VPWR VPWR _0259_ sky130_fd_sc_hd__nand2_1
XFILLER_14_251 VGND VGND VPWR VPWR sky130_fd_sc_hd__fill_1
XPHY_EDGE_ROW_24_Left_85 VGND VGND VPWR VPWR sky130_fd_sc_hd__decap_3
XFILLER_49_181 VPWR VGND VPWR VGND sky130_ef_sc_hd__decap_12
X_1304_ _0680_ _0684_ VGND VGND VPWR VPWR _0702_ sky130_fd_sc_hd__nand2_1
X_1166_ _0531_ _0543_ VGND VGND VPWR VPWR _0566_ sky130_fd_sc_hd__nor2_1