*SPEF "ieee 1481-1999"
*DESIGN "des_core"
*DATE "00:51:13 Wednesday December 17, 2025"
*VENDOR "The OpenROAD Project"
*PROGRAM "OpenROAD"
*VERSION "edf00dff99f6c40d67a30c0e22a8191c5d2ed9d6"
*DESIGN_FLOW "NAME_SCOPE LOCAL" "PIN_CAP NONE"
*DIVIDER /
*DELIMITER :
*BUS_DELIMITER []
*T_UNIT 1 NS
*C_UNIT 1 PF
*R_UNIT 1 OHM
*L_UNIT 1 HENRY

*NAME_MAP
*3 clk
*4 des_data[0]
*5 des_data[10]
*6 des_data[11]
*7 des_data[12]
*8 des_data[13]
*9 des_data[14]
*10 des_data[15]
*11 des_data[16]
*12 des_data[17]
*13 des_data[18]
*14 des_data[19]
*15 des_data[1]
*16 des_data[20]
*17 des_data[21]
*18 des_data[22]
*19 des_data[23]
*20 des_data[24]
*21 des_data[25]
*22 des_data[26]
*23 des_data[27]
*24 des_data[28]
*25 des_data[29]
*26 des_data[2]
*27 des_data[30]
*28 des_data[31]
*29 des_data[32]
*30 des_data[33]
*31 des_data[34]
*32 des_data[35]
*33 des_data[36]
*34 des_data[37]
*35 des_data[38]
*36 des_data[39]
*37 des_data[3]
*38 des_data[40]
*39 des_data[41]
*40 des_data[42]
*41 des_data[43]
*42 des_data[44]
*43 des_data[45]
*44 des_data[46]
*45 des_data[47]
*46 des_data[48]
*47 des_data[49]
*48 des_data[4]
*49 des_data[50]
*50 des_data[51]
*51 des_data[52]
*52 des_data[53]
*53 des_data[54]
*54 des_data[55]
*55 des_data[56]
*56 des_data[57]
*57 des_data[58]
*58 des_data[59]
*59 des_data[5]
*60 des_data[60]
*61 des_data[61]
*62 des_data[62]
*63 des_data[63]
*64 des_data[6]
*65 des_data[7]
*66 des_data[8]
*67 des_data[9]
*68 des_decipher_en
*69 des_encipher_en
*70 des_key_in[0]
*71 des_key_in[10]
*72 des_key_in[11]
*73 des_key_in[12]
*74 des_key_in[13]
*75 des_key_in[14]
*76 des_key_in[15]
*77 des_key_in[16]
*78 des_key_in[17]
*79 des_key_in[18]
*80 des_key_in[19]
*81 des_key_in[1]
*82 des_key_in[20]
*83 des_key_in[21]
*84 des_key_in[22]
*85 des_key_in[23]
*86 des_key_in[24]
*87 des_key_in[25]
*88 des_key_in[26]
*89 des_key_in[27]
*90 des_key_in[28]
*91 des_key_in[29]
*92 des_key_in[2]
*93 des_key_in[30]
*94 des_key_in[31]
*95 des_key_in[32]
*96 des_key_in[33]
*97 des_key_in[34]
*98 des_key_in[35]
*99 des_key_in[36]
*100 des_key_in[37]
*101 des_key_in[38]
*102 des_key_in[39]
*103 des_key_in[3]
*104 des_key_in[40]
*105 des_key_in[41]
*106 des_key_in[42]
*107 des_key_in[43]
*108 des_key_in[44]
*109 des_key_in[45]
*110 des_key_in[46]
*111 des_key_in[47]
*112 des_key_in[48]
*113 des_key_in[49]
*114 des_key_in[4]
*115 des_key_in[50]
*116 des_key_in[51]
*117 des_key_in[52]
*118 des_key_in[53]
*119 des_key_in[54]
*120 des_key_in[55]
*121 des_key_in[56]
*122 des_key_in[57]
*123 des_key_in[58]
*124 des_key_in[59]
*125 des_key_in[5]
*126 des_key_in[60]
*127 des_key_in[61]
*128 des_key_in[62]
*129 des_key_in[63]
*130 des_key_in[6]
*131 des_key_in[7]
*132 des_key_in[8]
*133 des_key_in[9]
*134 desc_ready
*135 desc_result[0]
*136 desc_result[10]
*137 desc_result[11]
*138 desc_result[12]
*139 desc_result[13]
*140 desc_result[14]
*141 desc_result[15]
*142 desc_result[16]
*143 desc_result[17]
*144 desc_result[18]
*145 desc_result[19]
*146 desc_result[1]
*147 desc_result[20]
*148 desc_result[21]
*149 desc_result[22]
*150 desc_result[23]
*151 desc_result[24]
*152 desc_result[25]
*153 desc_result[26]
*154 desc_result[27]
*155 desc_result[28]
*156 desc_result[29]
*157 desc_result[2]
*158 desc_result[30]
*159 desc_result[31]
*160 desc_result[32]
*161 desc_result[33]
*162 desc_result[34]
*163 desc_result[35]
*164 desc_result[36]
*165 desc_result[37]
*166 desc_result[38]
*167 desc_result[39]
*168 desc_result[3]
*169 desc_result[40]
*170 desc_result[41]
*171 desc_result[42]
*172 desc_result[43]
*173 desc_result[44]
*174 desc_result[45]
*175 desc_result[46]
*176 desc_result[47]
*177 desc_result[48]
*178 desc_result[49]
*179 desc_result[4]
*180 desc_result[50]
*181 desc_result[51]
*182 desc_result[52]
*183 desc_result[53]
*184 desc_result[54]
*185 desc_result[55]
*186 desc_result[56]
*187 desc_result[57]
*188 desc_result[58]
*189 desc_result[59]
*190 desc_result[5]
*191 desc_result[60]
*192 desc_result[61]
*193 desc_result[62]
*194 desc_result[63]
*195 desc_result[6]
*196 desc_result[7]
*197 desc_result[8]
*198 desc_result[9]
*199 rst_n
*200 _0000_
*201 _0001_
*202 _0002_
*203 _0003_
*204 _0004_
*205 _0005_
*206 _0006_
*207 _0007_
*208 _0008_
*209 _0009_
*210 _0010_
*211 _0011_
*212 _0012_
*213 _0013_
*214 _0014_
*215 _0015_
*216 _0016_
*217 _0017_
*218 _0018_
*219 _0019_
*220 _0020_
*221 _0021_
*222 _0022_
*223 _0023_
*224 _0024_
*225 _0025_
*226 _0026_
*227 _0027_
*228 _0028_
*229 _0029_
*230 _0030_
*231 _0031_
*232 _0032_
*233 _0033_
*234 _0034_
*235 _0035_
*236 _0036_
*237 _0037_
*238 _0038_
*239 _0039_
*240 _0040_
*241 _0041_
*242 _0042_
*243 _0043_
*244 _0044_
*245 _0045_
*246 _0046_
*247 _0047_
*248 _0048_
*249 _0049_
*250 _0050_
*251 _0051_
*252 _0052_
*253 _0053_
*254 _0054_
*255 _0055_
*256 _0056_
*257 _0057_
*258 _0058_
*259 _0059_
*260 _0060_
*261 _0061_
*262 _0062_
*263 _0063_
*264 _0064_
*265 _0065_
*266 _0066_
*267 _0067_
*268 _0068_
*269 _0069_
*270 _0070_
*271 _0071_
*272 _0072_
*273 _0073_
*274 _0074_
*275 _0075_
*276 _0076_
*277 _0077_
*278 _0078_
*279 _0079_
*280 _0080_
*281 _0081_
*282 _0082_
*283 _0083_
*284 _0084_
*285 _0085_
*286 _0086_
*287 _0087_
*288 _0088_
*289 _0089_
*290 _0090_
*291 _0091_
*292 _0092_
*293 _0093_
*294 _0094_
*295 _0095_
*296 _0096_
*297 _0097_
*298 _0098_
*299 _0099_
*300 _0100_
*301 _0101_
*302 _0102_
*303 _0103_
*304 _0104_
*305 _0105_
*306 _0106_
*307 _0107_
*308 _0108_
*309 _0109_
*310 _0110_
*311 _0111_
*312 _0112_
*313 _0113_
*314 _0114_
*315 _0115_
*316 _0116_
*317 _0117_
*318 _0118_
*319 _0119_
*320 _0120_
*321 _0121_
*322 _0122_
*323 _0123_
*324 _0124_
*325 _0125_
*326 _0126_
*327 _0127_
*328 _0128_
*329 _0129_
*330 _0130_
*331 _0131_
*332 _0132_
*333 _0133_
*334 _0134_
*335 _0135_
*336 _0136_
*337 _0137_
*338 _0138_
*339 _0139_
*340 _0140_
*341 _0141_
*342 _0142_
*343 _0143_
*344 _0144_
*345 _0145_
*346 _0146_
*347 _0147_
*348 _0148_
*349 _0149_
*350 _0150_
*351 _0151_
*352 _0152_
*353 _0153_
*354 _0154_
*355 _0155_
*356 _0156_
*357 _0157_
*358 _0158_
*359 _0159_
*360 _0160_
*361 _0161_
*362 _0162_
*363 _0163_
*364 _0164_
*365 _0165_
*366 _0166_
*367 _0167_
*368 _0168_
*369 _0169_
*370 _0170_
*371 _0171_
*372 _0172_
*373 _0173_
*374 _0174_
*375 _0175_
*376 _0176_
*377 _0177_
*378 _0178_
*379 _0179_
*380 _0180_
*381 _0181_
*382 _0182_
*383 _0183_
*384 _0184_
*385 _0185_
*386 _0186_
*387 _0187_
*388 _0188_
*389 _0189_
*390 _0190_
*391 _0191_
*392 _0192_
*393 _0193_
*394 _0194_
*395 _0195_
*396 _0196_
*397 _0197_
*398 _0198_
*399 _0199_
*400 _0200_
*401 _0201_
*402 _0202_
*403 _0203_
*404 _0204_
*405 _0205_
*406 _0206_
*407 _0207_
*408 _0208_
*409 _0209_
*410 _0210_
*411 _0211_
*412 _0212_
*413 _0213_
*414 _0214_
*415 _0215_
*416 _0216_
*417 _0217_
*418 _0218_
*419 _0219_
*420 _0220_
*421 _0221_
*422 _0222_
*423 _0223_
*424 _0224_
*425 _0225_
*426 _0226_
*427 _0227_
*428 _0228_
*429 _0229_
*430 _0230_
*431 _0231_
*432 _0232_
*433 _0233_
*434 _0234_
*435 _0235_
*436 _0236_
*437 _0237_
*438 _0238_
*439 _0239_
*440 _0240_
*441 _0241_
*442 _0242_
*443 _0243_
*444 _0244_
*445 _0245_
*446 _0246_
*447 _0247_
*448 _0248_
*449 _0249_
*450 _0250_
*451 _0251_
*452 _0252_
*453 _0253_
*454 _0254_
*455 _0255_
*456 _0256_
*457 _0257_
*458 _0258_
*459 _0259_
*460 _0260_
*461 _0261_
*462 _0262_
*463 _0263_
*464 _0264_
*465 _0265_
*466 _0266_
*467 _0267_
*468 _0268_
*469 _0269_
*470 _0270_
*471 _0271_
*472 _0272_
*473 _0273_
*474 _0274_
*475 _0275_
*476 _0276_
*477 _0277_
*478 _0278_
*479 _0279_
*480 _0280_
*481 _0281_
*482 _0282_
*483 _0283_
*484 _0284_
*485 _0285_
*486 _0286_
*487 _0287_
*488 _0288_
*489 _0289_
*490 _0290_
*491 _0291_
*492 _0292_
*493 _0293_
*494 _0294_
*495 _0295_
*496 _0296_
*497 _0297_
*498 _0298_
*499 _0299_
*500 _0300_
*501 _0301_
*502 _0302_
*503 _0303_
*504 _0304_
*505 _0305_
*506 _0306_
*507 _0307_
*508 _0308_
*509 _0309_
*510 _0310_
*511 _0311_
*512 _0312_
*513 _0313_
*514 _0314_
*515 _0315_
*516 _0316_
*517 _0317_
*518 _0318_
*519 _0319_
*520 _0320_
*521 _0321_
*522 _0322_
*523 _0323_
*524 _0324_
*525 _0325_
*526 _0326_
*527 _0327_
*528 _0328_
*529 _0329_
*530 _0330_
*531 _0331_
*532 _0332_
*533 _0333_
*534 _0334_
*535 _0335_
*536 _0336_
*537 _0337_
*538 _0338_
*539 _0339_
*540 _0340_
*541 _0341_
*542 _0342_
*543 _0343_
*544 _0344_
*545 _0345_
*546 _0346_
*547 _0347_
*548 _0348_
*549 _0349_
*550 _0350_
*551 _0351_
*552 _0352_
*553 _0353_
*554 _0354_
*555 _0355_
*556 _0356_
*557 _0357_
*558 _0358_
*559 _0359_
*560 _0360_
*561 _0361_
*562 _0362_
*563 _0363_
*564 _0364_
*565 _0365_
*566 _0366_
*567 _0367_
*568 _0368_
*569 _0369_
*570 _0370_
*571 _0371_
*572 _0372_
*573 _0373_
*574 _0374_
*575 _0375_
*576 _0376_
*577 _0377_
*578 _0378_
*579 _0379_
*580 _0380_
*581 _0381_
*582 _0382_
*583 _0383_
*584 _0384_
*585 _0385_
*586 _0386_
*587 _0387_
*588 _0388_
*589 _0389_
*590 _0390_
*591 _0391_
*592 _0392_
*593 _0393_
*594 _0394_
*595 _0395_
*596 _0396_
*597 _0397_
*598 _0398_
*599 _0399_
*600 _0400_
*601 _0401_
*602 _0402_
*603 _0403_
*604 _0404_
*605 _0405_
*606 _0406_
*607 _0407_
*608 _0408_
*609 _0409_
*610 _0410_
*611 _0411_
*612 _0412_
*613 _0413_
*614 _0414_
*615 _0415_
*616 _0416_
*617 _0417_
*618 _0418_
*619 _0419_
*620 _0420_
*621 _0421_
*622 _0422_
*623 _0423_
*624 _0424_
*625 _0425_
*626 _0426_
*627 _0427_
*628 _0428_
*629 _0429_
*630 _0430_
*631 _0431_
*632 _0432_
*633 _0433_
*634 _0434_
*635 _0435_
*636 _0436_
*637 _0437_
*638 _0438_
*639 _0439_
*640 _0440_
*641 _0441_
*642 _0442_
*643 _0443_
*644 _0444_
*645 _0445_
*646 _0446_
*647 _0447_
*648 _0448_
*649 _0449_
*650 _0450_
*651 _0451_
*652 _0452_
*653 _0453_
*654 _0454_
*655 _0455_
*656 _0456_
*657 _0457_
*658 _0458_
*659 _0459_
*660 _0460_
*661 _0461_
*662 _0462_
*663 _0463_
*664 _0464_
*665 _0465_
*666 _0466_
*667 _0467_
*668 _0468_
*669 _0469_
*670 _0470_
*671 _0471_
*672 _0472_
*673 _0473_
*674 _0474_
*675 _0475_
*676 _0476_
*677 _0477_
*678 _0478_
*679 _0479_
*680 _0480_
*681 _0481_
*682 _0482_
*683 _0483_
*684 _0484_
*685 _0485_
*686 _0486_
*687 _0487_
*688 _0488_
*689 _0489_
*690 _0490_
*691 _0491_
*692 _0492_
*693 _0493_
*694 _0494_
*695 _0495_
*696 _0496_
*697 _0497_
*698 _0498_
*699 _0499_
*700 _0500_
*701 _0501_
*702 _0502_
*703 _0503_
*704 _0504_
*705 _0505_
*706 _0506_
*707 _0507_
*708 _0508_
*709 _0509_
*710 _0510_
*711 _0511_
*712 _0512_
*713 _0513_
*714 _0514_
*715 _0515_
*716 _0516_
*717 _0517_
*718 _0518_
*719 _0519_
*720 _0520_
*721 _0521_
*722 _0522_
*723 _0523_
*724 _0524_
*725 _0525_
*726 _0526_
*727 _0527_
*728 _0528_
*729 _0529_
*730 _0530_
*731 _0531_
*732 _0532_
*733 _0533_
*734 _0534_
*735 _0535_
*736 _0536_
*737 _0537_
*738 _0538_
*739 _0539_
*740 _0540_
*741 _0541_
*742 _0542_
*743 _0543_
*744 _0544_
*745 _0545_
*746 _0546_
*747 _0547_
*748 _0548_
*749 _0549_
*750 _0550_
*751 _0551_
*752 _0552_
*753 _0553_
*754 _0554_
*755 _0555_
*756 _0556_
*757 _0557_
*758 _0558_
*759 _0559_
*760 _0560_
*761 _0561_
*762 _0562_
*763 _0563_
*764 _0564_
*765 _0565_
*766 _0566_
*767 _0567_
*768 _0568_
*769 _0569_
*770 _0570_
*771 _0571_
*772 _0572_
*773 _0573_
*774 _0574_
*775 _0575_
*776 _0576_
*777 _0577_
*778 _0578_
*779 _0579_
*780 _0580_
*781 _0581_
*782 _0582_
*783 _0583_
*784 _0584_
*785 _0585_
*786 _0586_
*787 _0587_
*788 _0588_
*789 _0589_
*790 _0590_
*791 _0591_
*792 _0592_
*793 _0593_
*794 _0594_
*795 _0595_
*796 _0596_
*797 _0597_
*798 _0598_
*799 _0599_
*800 _0600_
*801 _0601_
*802 _0602_
*803 _0603_
*804 _0604_
*805 _0605_
*806 _0606_
*807 _0607_
*808 _0608_
*809 _0609_
*810 _0610_
*811 _0611_
*812 _0612_
*813 _0613_
*814 _0614_
*815 _0615_
*816 _0616_
*817 _0617_
*818 _0618_
*819 _0619_
*820 _0620_
*821 _0621_
*822 _0622_
*823 _0623_
*824 _0624_
*825 _0625_
*826 _0626_
*827 _0627_
*828 _0628_
*829 _0629_
*830 _0630_
*831 _0631_
*832 _0632_
*833 _0633_
*834 _0634_
*835 _0635_
*836 _0636_
*837 _0637_
*838 _0638_
*839 _0639_
*840 _0640_
*841 _0641_
*842 _0642_
*843 _0643_
*844 _0644_
*845 _0645_
*846 _0646_
*847 _0647_
*848 _0648_
*849 _0649_
*850 _0650_
*851 _0651_
*852 _0652_
*853 _0653_
*854 _0654_
*855 _0655_
*856 _0656_
*857 _0657_
*858 _0658_
*859 _0659_
*860 _0660_
*861 _0661_
*862 _0662_
*863 _0663_
*864 _0664_
*865 _0665_
*866 _0666_
*867 _0667_
*868 _0668_
*869 _0669_
*870 _0670_
*871 _0671_
*872 _0672_
*873 _0673_
*874 _0674_
*875 _0675_
*876 _0676_
*877 _0677_
*878 _0678_
*879 _0679_
*880 _0680_
*881 _0681_
*882 _0682_
*883 _0683_
*884 _0684_
*885 _0685_
*886 _0686_
*887 _0687_
*888 _0688_
*889 _0689_
*890 _0690_
*891 _0691_
*892 _0692_
*893 _0693_
*894 _0694_
*895 _0695_
*896 _0696_
*897 _0697_
*898 _0698_
*899 _0699_
*900 _0700_
*901 _0701_
*902 _0702_
*903 _0703_
*904 _0704_
*905 _0705_
*906 _0706_
*907 _0707_
*908 _0708_
*909 _0709_
*910 _0710_
*911 _0711_
*912 _0712_
*913 _0713_
*914 _0714_
*915 _0715_
*916 _0716_
*917 _0717_
*918 _0718_
*919 _0719_
*920 _0720_
*921 _0721_
*922 _0722_
*923 _0723_
*924 _0724_
*925 _0725_
*926 _0726_
*927 _0727_
*928 _0728_
*929 _0729_
*930 _0730_
*931 _0731_
*932 _0732_
*933 _0733_
*934 _0734_
*935 _0735_
*936 _0736_
*937 _0737_
*938 _0738_
*939 _0739_
*940 _0740_
*941 _0741_
*942 _0742_
*943 _0743_
*944 _0744_
*945 _0745_
*946 _0746_
*947 _0747_
*948 _0748_
*949 _0749_
*950 _0750_
*951 _0751_
*952 _0752_
*953 _0753_
*954 _0754_
*955 _0755_
*956 _0756_
*957 _0757_
*958 _0758_
*959 _0759_
*960 _0760_
*961 _0761_
*962 _0762_
*963 _0763_
*964 _0764_
*965 _0765_
*966 _0766_
*967 _0767_
*968 _0768_
*969 _0769_
*970 _0770_
*971 _0771_
*972 _0772_
*973 _0773_
*974 _0774_
*975 _0775_
*976 _0776_
*977 _0777_
*978 _0778_
*979 _0779_
*980 _0780_
*981 _0781_
*982 _0782_
*983 _0783_
*984 _0784_
*985 _0785_
*986 _0786_
*987 _0787_
*988 _0788_
*989 _0789_
*990 _0790_
*991 _0791_
*992 _0792_
*993 _0793_
*994 _0794_
*995 _0795_
*996 _0796_
*997 _0797_
*998 _0798_
*999 _0799_
*1000 _0800_
*1001 _0801_
*1002 _0802_
*1003 _0803_
*1004 _0804_
*1005 _0805_
*1006 _0806_
*1007 _0807_
*1008 _0808_
*1009 _0809_
*1010 _0810_
*1011 _0811_
*1012 _0812_
*1013 _0813_
*1014 _0814_
*1015 _0815_
*1016 _0816_
*1017 _0817_
*1018 _0818_
*1019 _0819_
*1020 _0820_
*1021 _0821_
*1022 _0822_
*1023 _0823_
*1024 _0824_
*1025 _0825_
*1026 _0826_
*1027 _0827_
*1028 _0828_
*1029 _0829_
*1030 _0830_
*1031 _0831_
*1032 _0832_
*1033 _0833_
*1034 _0834_
*1035 _0835_
*1036 _0836_
*1037 _0837_
*1038 _0838_
*1039 _0839_
*1040 _0840_
*1041 _0841_
*1042 _0842_
*1043 _0843_
*1044 _0844_
*1045 _0845_
*1046 _0846_
*1047 _0847_
*1048 _0848_
*1049 _0849_
*1050 _0850_
*1051 _0851_
*1052 _0852_
*1053 _0853_
*1054 _0854_
*1055 _0855_
*1056 _0856_
*1057 _0857_
*1058 _0858_
*1059 _0859_
*1060 _0860_
*1061 _0861_
*1062 _0862_
*1063 _0863_
*1064 _0864_
*1065 _0865_
*1066 _0866_
*1067 _0867_
*1068 _0868_
*1069 _0869_
*1070 _0870_
*1071 _0871_
*1072 _0872_
*1073 _0873_
*1074 _0874_
*1075 _0875_
*1076 _0876_
*1077 _0877_
*1078 _0878_
*1079 _0879_
*1080 _0880_
*1081 _0881_
*1082 _0882_
*1083 _0883_
*1084 _0884_
*1085 _0885_
*1086 _0886_
*1087 _0887_
*1088 _0888_
*1089 _0889_
*1090 _0890_
*1091 _0891_
*1092 _0892_
*1093 _0893_
*1094 _0894_
*1095 _0895_
*1096 _0896_
*1097 _0897_
*1098 _0898_
*1099 _0899_
*1100 _0900_
*1101 _0901_
*1102 _0902_
*1103 _0903_
*1104 _0904_
*1105 _0905_
*1106 _0906_
*1107 _0907_
*1108 _0908_
*1109 _0909_
*1110 _0910_
*1111 _0911_
*1112 _0912_
*1113 _0913_
*1114 _0914_
*1115 _0915_
*1116 _0916_
*1117 _0917_
*1118 _0918_
*1119 _0919_
*1120 _0920_
*1121 _0921_
*1122 _0922_
*1123 _0923_
*1124 _0924_
*1125 _0925_
*1126 _0926_
*1127 _0927_
*1128 _0928_
*1129 _0929_
*1130 _0930_
*1131 _0931_
*1132 _0932_
*1133 _0933_
*1134 _0934_
*1135 _0935_
*1136 _0936_
*1137 _0937_
*1138 _0938_
*1139 _0939_
*1140 _0940_
*1141 _0941_
*1142 _0942_
*1143 _0943_
*1144 _0944_
*1145 _0945_
*1146 _0946_
*1147 _0947_
*1148 _0948_
*1149 _0949_
*1150 _0950_
*1151 _0951_
*1152 _0952_
*1153 _0953_
*1154 _0954_
*1155 _0955_
*1156 _0956_
*1157 _0957_
*1158 _0958_
*1159 _0959_
*1160 _0960_
*1161 _0961_
*1162 _0962_
*1163 _0963_
*1164 _0964_
*1165 _0965_
*1166 _0966_
*1167 _0967_
*1168 _0968_
*1169 _0969_
*1170 _0970_
*1171 _0971_
*1172 _0972_
*1173 _0973_
*1174 _0974_
*1175 _0975_
*1176 _0976_
*1177 _0977_
*1178 _0978_
*1179 _0979_
*1180 _0980_
*1181 _0981_
*1182 _0982_
*1183 _0983_
*1184 _0984_
*1185 _0985_
*1186 _0986_
*1187 _0987_
*1188 _0988_
*1189 _0989_
*1190 _0990_
*1191 _0991_
*1192 _0992_
*1193 _0993_
*1194 _0994_
*1195 _0995_
*1196 _0996_
*1197 _0997_
*1198 _0998_
*1199 _0999_
*1200 _1000_
*1201 _1001_
*1202 _1002_
*1203 _1003_
*1204 _1004_
*1205 _1005_
*1206 _1006_
*1207 _1007_
*1208 _1008_
*1209 _1009_
*1210 _1010_
*1211 _1011_
*1212 _1012_
*1213 _1013_
*1214 _1014_
*1215 _1015_
*1216 _1016_
*1217 _1017_
*1218 _1018_
*1219 _1019_
*1220 _1020_
*1221 _1021_
*1222 _1022_
*1223 _1023_
*1224 _1024_
*1225 _1025_
*1226 _1026_
*1227 _1027_
*1228 _1028_
*1229 _1029_
*1230 _1030_
*1231 _1031_
*1232 _1032_
*1233 _1033_
*1234 _1034_
*1235 _1035_
*1236 _1036_
*1237 _1037_
*1238 _1038_
*1239 _1039_
*1240 _1040_
*1241 _1041_
*1242 _1042_
*1243 _1043_
*1244 _1044_
*1245 _1045_
*1246 _1046_
*1247 _1047_
*1248 _1048_
*1249 _1049_
*1250 _1050_
*1251 _1051_
*1252 _1052_
*1253 _1053_
*1254 _1054_
*1255 _1055_
*1256 _1056_
*1257 _1057_
*1258 _1058_
*1259 _1059_
*1260 _1060_
*1261 _1061_
*1262 _1062_
*1263 _1063_
*1264 _1064_
*1265 _1065_
*1266 _1066_
*1267 _1067_
*1268 _1068_
*1269 _1069_
*1270 _1070_
*1271 _1071_
*1272 _1072_
*1273 _1073_
*1274 _1074_
*1275 _1075_
*1276 _1076_
*1277 _1077_
*1278 _1078_
*1279 _1079_
*1280 _1080_
*1281 _1081_
*1282 _1082_
*1283 _1083_
*1284 _1084_
*1285 _1085_
*1286 _1086_
*1287 _1087_
*1288 _1088_
*1289 _1089_
*1290 _1090_
*1291 _1091_
*1292 _1092_
*1293 _1093_
*1294 _1094_
*1295 _1095_
*1296 _1096_
*1297 _1097_
*1298 _1098_
*1299 _1099_
*1300 _1100_
*1301 _1101_
*1302 _1102_
*1303 _1103_
*1304 _1104_
*1305 _1105_
*1306 _1106_
*1307 clknet_0_clk
*1308 clknet_4_0_0_clk
*1309 clknet_4_10_0_clk
*1310 clknet_4_11_0_clk
*1311 clknet_4_12_0_clk
*1312 clknet_4_13_0_clk
*1313 clknet_4_14_0_clk
*1314 clknet_4_15_0_clk
*1315 clknet_4_1_0_clk
*1316 clknet_4_2_0_clk
*1317 clknet_4_3_0_clk
*1318 clknet_4_4_0_clk
*1319 clknet_4_5_0_clk
*1320 clknet_4_6_0_clk
*1321 clknet_4_7_0_clk
*1322 clknet_4_8_0_clk
*1323 clknet_4_9_0_clk
*1324 cn\[0\]
*1325 cn\[10\]
*1326 cn\[11\]
*1327 cn\[12\]
*1328 cn\[13\]
*1329 cn\[14\]
*1330 cn\[15\]
*1331 cn\[16\]
*1332 cn\[17\]
*1333 cn\[18\]
*1334 cn\[19\]
*1335 cn\[1\]
*1336 cn\[20\]
*1337 cn\[21\]
*1338 cn\[22\]
*1339 cn\[23\]
*1340 cn\[24\]
*1341 cn\[25\]
*1342 cn\[26\]
*1343 cn\[27\]
*1344 cn\[2\]
*1345 cn\[3\]
*1346 cn\[4\]
*1347 cn\[5\]
*1348 cn\[6\]
*1349 cn\[7\]
*1350 cn\[8\]
*1351 cn\[9\]
*1352 cn_dn\[0\]
*1353 cn_dn\[10\]
*1354 cn_dn\[11\]
*1355 cn_dn\[12\]
*1356 cn_dn\[13\]
*1357 cn_dn\[14\]
*1358 cn_dn\[15\]
*1359 cn_dn\[16\]
*1360 cn_dn\[17\]
*1361 cn_dn\[18\]
*1362 cn_dn\[19\]
*1363 cn_dn\[1\]
*1364 cn_dn\[20\]
*1365 cn_dn\[21\]
*1366 cn_dn\[22\]
*1367 cn_dn\[23\]
*1368 cn_dn\[24\]
*1369 cn_dn\[25\]
*1370 cn_dn\[26\]
*1371 cn_dn\[27\]
*1372 cn_dn\[2\]
*1373 cn_dn\[3\]
*1374 cn_dn\[4\]
*1375 cn_dn\[5\]
*1376 cn_dn\[6\]
*1377 cn_dn\[7\]
*1378 cn_dn\[8\]
*1379 cn_dn\[9\]
*1380 decipher_process
*1381 encipher_en_sync
*1382 encipher_process
*1383 k16_calculation
*1384 key_process
*1385 net1
*1386 net10
*1387 net100
*1388 net101
*1389 net102
*1390 net103
*1391 net104
*1392 net105
*1393 net106
*1394 net107
*1395 net108
*1396 net109
*1397 net11
*1398 net110
*1399 net111
*1400 net112
*1401 net113
*1402 net114
*1403 net115
*1404 net116
*1405 net117
*1406 net118
*1407 net119
*1408 net12
*1409 net120
*1410 net121
*1411 net122
*1412 net123
*1413 net124
*1414 net125
*1415 net126
*1416 net127
*1417 net128
*1418 net129
*1419 net13
*1420 net130
*1421 net131
*1422 net132
*1423 net133
*1424 net134
*1425 net135
*1426 net136
*1427 net137
*1428 net138
*1429 net139
*1430 net14
*1431 net140
*1432 net141
*1433 net142
*1434 net143
*1435 net144
*1436 net145
*1437 net146
*1438 net147
*1439 net148
*1440 net149
*1441 net15
*1442 net150
*1443 net151
*1444 net152
*1445 net153
*1446 net154
*1447 net155
*1448 net156
*1449 net157
*1450 net158
*1451 net159
*1452 net16
*1453 net160
*1454 net161
*1455 net162
*1456 net163
*1457 net164
*1458 net165
*1459 net166
*1460 net167
*1461 net168
*1462 net169
*1463 net17
*1464 net170
*1465 net171
*1466 net172
*1467 net173
*1468 net174
*1469 net175
*1470 net176
*1471 net177
*1472 net178
*1473 net179
*1474 net18
*1475 net180
*1476 net181
*1477 net182
*1478 net183
*1479 net184
*1480 net185
*1481 net186
*1482 net187
*1483 net188
*1484 net189
*1485 net19
*1486 net190
*1487 net191
*1488 net192
*1489 net193
*1490 net194
*1491 net195
*1492 net196
*1493 net197
*1494 net198
*1495 net199
*1496 net2
*1497 net20
*1498 net200
*1499 net201
*1500 net202
*1501 net203
*1502 net204
*1503 net205
*1504 net206
*1505 net207
*1506 net208
*1507 net209
*1508 net21
*1509 net210
*1510 net211
*1511 net212
*1512 net213
*1513 net214
*1514 net215
*1515 net216
*1516 net217
*1517 net218
*1518 net219
*1519 net22
*1520 net220
*1521 net221
*1522 net222
*1523 net223
*1524 net224
*1525 net225
*1526 net226
*1527 net227
*1528 net228
*1529 net229
*1530 net23
*1531 net230
*1532 net231
*1533 net232
*1534 net233
*1535 net234
*1536 net235
*1537 net236
*1538 net237
*1539 net238
*1540 net239
*1541 net24
*1542 net240
*1543 net241
*1544 net242
*1545 net243
*1546 net244
*1547 net245
*1548 net246
*1549 net247
*1550 net248
*1551 net249
*1552 net25
*1553 net250
*1554 net251
*1555 net252
*1556 net253
*1557 net254
*1558 net255
*1559 net256
*1560 net26
*1561 net27
*1562 net28
*1563 net29
*1564 net3
*1565 net30
*1566 net31
*1567 net32
*1568 net33
*1569 net34
*1570 net35
*1571 net36
*1572 net37
*1573 net38
*1574 net39
*1575 net4
*1576 net40
*1577 net41
*1578 net42
*1579 net43
*1580 net44
*1581 net45
*1582 net46
*1583 net47
*1584 net48
*1585 net49
*1586 net5
*1587 net50
*1588 net51
*1589 net52
*1590 net53
*1591 net54
*1592 net55
*1593 net56
*1594 net57
*1595 net58
*1596 net59
*1597 net6
*1598 net60
*1599 net61
*1600 net62
*1601 net63
*1602 net64
*1603 net65
*1604 net66
*1605 net67
*1606 net68
*1607 net69
*1608 net7
*1609 net70
*1610 net71
*1611 net72
*1612 net73
*1613 net74
*1614 net75
*1615 net76
*1616 net77
*1617 net78
*1618 net79
*1619 net8
*1620 net80
*1621 net81
*1622 net82
*1623 net83
*1624 net84
*1625 net85
*1626 net86
*1627 net87
*1628 net88
*1629 net89
*1630 net9
*1631 net90
*1632 net91
*1633 net92
*1634 net93
*1635 net94
*1636 net95
*1637 net96
*1638 net97
*1639 net98
*1640 net99
*1641 rcounter\[0\]
*1642 rcounter\[1\]
*1643 rcounter\[2\]
*1644 rcounter\[3\]
*1645 ANTENNA_1
*1646 ANTENNA_2
*1647 ANTENNA_3
*1648 ANTENNA_4
*1649 ANTENNA_5
*1650 FILLER_0_107
*1651 FILLER_0_128
*1652 FILLER_0_135
*1653 FILLER_0_139
*1654 FILLER_0_141
*1655 FILLER_0_15
*1656 FILLER_0_161
*1657 FILLER_0_169
*1658 FILLER_0_185
*1659 FILLER_0_20
*1660 FILLER_0_228
*1661 FILLER_0_251
*1662 FILLER_0_278
*1663 FILLER_0_29
*1664 FILLER_0_290
*1665 FILLER_0_3
*1666 FILLER_0_307
*1667 FILLER_0_337
*1668 FILLER_0_351
*1669 FILLER_0_37
*1670 FILLER_0_41
*1671 FILLER_0_57
*1672 FILLER_0_82
*1673 FILLER_0_97
*1674 FILLER_10_103
*1675 FILLER_10_115
*1676 FILLER_10_129
*1677 FILLER_10_137
*1678 FILLER_10_144
*1679 FILLER_10_152
*1680 FILLER_10_164
*1681 FILLER_10_176
*1682 FILLER_10_188
*1683 FILLER_10_197
*1684 FILLER_10_209
*1685 FILLER_10_221
*1686 FILLER_10_233
*1687 FILLER_10_245
*1688 FILLER_10_25
*1689 FILLER_10_251
*1690 FILLER_10_253
*1691 FILLER_10_265
*1692 FILLER_10_272
*1693 FILLER_10_282
*1694 FILLER_10_29
*1695 FILLER_10_294
*1696 FILLER_10_305
*1697 FILLER_10_309
*1698 FILLER_10_317
*1699 FILLER_10_343
*1700 FILLER_10_360
*1701 FILLER_10_41
*1702 FILLER_10_53
*1703 FILLER_10_6
*1704 FILLER_10_80
*1705 FILLER_11_106
*1706 FILLER_11_120
*1707 FILLER_11_132
*1708 FILLER_11_136
*1709 FILLER_11_148
*1710 FILLER_11_157
*1711 FILLER_11_165
*1712 FILLER_11_169
*1713 FILLER_11_174
*1714 FILLER_11_186
*1715 FILLER_11_191
*1716 FILLER_11_203
*1717 FILLER_11_215
*1718 FILLER_11_223
*1719 FILLER_11_225
*1720 FILLER_11_23
*1721 FILLER_11_237
*1722 FILLER_11_249
*1723 FILLER_11_272
*1724 FILLER_11_281
*1725 FILLER_11_316
*1726 FILLER_11_328
*1727 FILLER_11_341
*1728 FILLER_11_345
*1729 FILLER_11_35
*1730 FILLER_11_42
*1731 FILLER_11_54
*1732 FILLER_11_57
*1733 FILLER_11_6
*1734 FILLER_11_67
*1735 FILLER_11_71
*1736 FILLER_12_100
*1737 FILLER_12_112
*1738 FILLER_12_127
*1739 FILLER_12_135
*1740 FILLER_12_139
*1741 FILLER_12_141
*1742 FILLER_12_145
*1743 FILLER_12_181
*1744 FILLER_12_185
*1745 FILLER_12_19
*1746 FILLER_12_192
*1747 FILLER_12_197
*1748 FILLER_12_209
*1749 FILLER_12_221
*1750 FILLER_12_233
*1751 FILLER_12_245
*1752 FILLER_12_251
*1753 FILLER_12_253
*1754 FILLER_12_27
*1755 FILLER_12_29
*1756 FILLER_12_292
*1757 FILLER_12_309
*1758 FILLER_12_319
*1759 FILLER_12_323
*1760 FILLER_12_327
*1761 FILLER_12_335
*1762 FILLER_12_343
*1763 FILLER_12_349
*1764 FILLER_12_73
*1765 FILLER_12_81
*1766 FILLER_12_85
*1767 FILLER_12_91
*1768 FILLER_13_108
*1769 FILLER_13_113
*1770 FILLER_13_121
*1771 FILLER_13_138
*1772 FILLER_13_150
*1773 FILLER_13_161
*1774 FILLER_13_167
*1775 FILLER_13_180
*1776 FILLER_13_184
*1777 FILLER_13_207
*1778 FILLER_13_219
*1779 FILLER_13_223
*1780 FILLER_13_225
*1781 FILLER_13_231
*1782 FILLER_13_264
*1783 FILLER_13_276
*1784 FILLER_13_288
*1785 FILLER_13_29
*1786 FILLER_13_296
*1787 FILLER_13_315
*1788 FILLER_13_319
*1789 FILLER_13_353
*1790 FILLER_13_37
*1791 FILLER_13_46
*1792 FILLER_13_57
*1793 FILLER_13_69
*1794 FILLER_13_81
*1795 FILLER_13_9
*1796 FILLER_13_93
*1797 FILLER_14_114
*1798 FILLER_14_12
*1799 FILLER_14_122
*1800 FILLER_14_127
*1801 FILLER_14_139
*1802 FILLER_14_141
*1803 FILLER_14_147
*1804 FILLER_14_153
*1805 FILLER_14_165
*1806 FILLER_14_169
*1807 FILLER_14_177
*1808 FILLER_14_189
*1809 FILLER_14_195
*1810 FILLER_14_197
*1811 FILLER_14_209
*1812 FILLER_14_22
*1813 FILLER_14_221
*1814 FILLER_14_233
*1815 FILLER_14_245
*1816 FILLER_14_251
*1817 FILLER_14_253
*1818 FILLER_14_276
*1819 FILLER_14_288
*1820 FILLER_14_29
*1821 FILLER_14_300
*1822 FILLER_14_309
*1823 FILLER_14_321
*1824 FILLER_14_328
*1825 FILLER_14_345
*1826 FILLER_14_351
*1827 FILLER_14_361
*1828 FILLER_14_50
*1829 FILLER_14_59
*1830 FILLER_14_69
*1831 FILLER_14_83
*1832 FILLER_14_88
*1833 FILLER_14_95
*1834 FILLER_15_107
*1835 FILLER_15_111
*1836 FILLER_15_113
*1837 FILLER_15_134
*1838 FILLER_15_157
*1839 FILLER_15_165
*1840 FILLER_15_178
*1841 FILLER_15_184
*1842 FILLER_15_198
*1843 FILLER_15_20
*1844 FILLER_15_210
*1845 FILLER_15_222
*1846 FILLER_15_225
*1847 FILLER_15_237
*1848 FILLER_15_24
*1849 FILLER_15_250
*1850 FILLER_15_258
*1851 FILLER_15_281
*1852 FILLER_15_293
*1853 FILLER_15_3
*1854 FILLER_15_303
*1855 FILLER_15_329
*1856 FILLER_15_335
*1857 FILLER_15_337
*1858 FILLER_15_46
*1859 FILLER_15_70
*1860 FILLER_16_105
*1861 FILLER_16_117
*1862 FILLER_16_130
*1863 FILLER_16_138
*1864 FILLER_16_141
*1865 FILLER_16_153
*1866 FILLER_16_157
*1867 FILLER_16_162
*1868 FILLER_16_174
*1869 FILLER_16_186
*1870 FILLER_16_194
*1871 FILLER_16_197
*1872 FILLER_16_209
*1873 FILLER_16_221
*1874 FILLER_16_253
*1875 FILLER_16_275
*1876 FILLER_16_293
*1877 FILLER_16_309
*1878 FILLER_16_315
*1879 FILLER_16_336
*1880 FILLER_16_344
*1881 FILLER_16_361
*1882 FILLER_16_46
*1883 FILLER_16_50
*1884 FILLER_16_56
*1885 FILLER_16_78
*1886 FILLER_17_111
*1887 FILLER_17_113
*1888 FILLER_17_121
*1889 FILLER_17_129
*1890 FILLER_17_137
*1891 FILLER_17_150
*1892 FILLER_17_156
*1893 FILLER_17_160
*1894 FILLER_17_166
*1895 FILLER_17_172
*1896 FILLER_17_184
*1897 FILLER_17_196
*1898 FILLER_17_208
*1899 FILLER_17_220
*1900 FILLER_17_225
*1901 FILLER_17_237
*1902 FILLER_17_251
*1903 FILLER_17_275
*1904 FILLER_17_279
*1905 FILLER_17_299
*1906 FILLER_17_335
*1907 FILLER_17_358
*1908 FILLER_17_51
*1909 FILLER_17_55
*1910 FILLER_17_79
*1911 FILLER_17_9
*1912 FILLER_18_10
*1913 FILLER_18_104
*1914 FILLER_18_129
*1915 FILLER_18_137
*1916 FILLER_18_141
*1917 FILLER_18_149
*1918 FILLER_18_156
*1919 FILLER_18_164
*1920 FILLER_18_176
*1921 FILLER_18_188
*1922 FILLER_18_197
*1923 FILLER_18_209
*1924 FILLER_18_217
*1925 FILLER_18_225
*1926 FILLER_18_237
*1927 FILLER_18_24
*1928 FILLER_18_247
*1929 FILLER_18_251
*1930 FILLER_18_29
*1931 FILLER_18_327
*1932 FILLER_18_6
*1933 FILLER_18_70
*1934 FILLER_18_74
*1935 FILLER_18_85
*1936 FILLER_19_113
*1937 FILLER_19_145
*1938 FILLER_19_157
*1939 FILLER_19_165
*1940 FILLER_19_169
*1941 FILLER_19_181
*1942 FILLER_19_193
*1943 FILLER_19_205
*1944 FILLER_19_233
*1945 FILLER_19_247
*1946 FILLER_19_291
*1947 FILLER_19_295
*1948 FILLER_19_312
*1949 FILLER_19_331
*1950 FILLER_19_335
*1951 FILLER_19_346
*1952 FILLER_19_36
*1953 FILLER_19_361
*1954 FILLER_19_54
*1955 FILLER_19_68
*1956 FILLER_1_107
*1957 FILLER_1_111
*1958 FILLER_1_129
*1959 FILLER_1_160
*1960 FILLER_1_169
*1961 FILLER_1_174
*1962 FILLER_1_18
*1963 FILLER_1_200
*1964 FILLER_1_225
*1965 FILLER_1_263
*1966 FILLER_1_30
*1967 FILLER_1_334
*1968 FILLER_1_337
*1969 FILLER_1_348
*1970 FILLER_1_361
*1971 FILLER_1_42
*1972 FILLER_1_54
*1973 FILLER_1_57
*1974 FILLER_1_6
*1975 FILLER_1_83
*1976 FILLER_1_95
*1977 FILLER_20_121
*1978 FILLER_20_133
*1979 FILLER_20_139
*1980 FILLER_20_141
*1981 FILLER_20_153
*1982 FILLER_20_165
*1983 FILLER_20_177
*1984 FILLER_20_189
*1985 FILLER_20_195
*1986 FILLER_20_197
*1987 FILLER_20_209
*1988 FILLER_20_217
*1989 FILLER_20_230
*1990 FILLER_20_253
*1991 FILLER_20_268
*1992 FILLER_20_275
*1993 FILLER_20_29
*1994 FILLER_20_303
*1995 FILLER_20_307
*1996 FILLER_20_309
*1997 FILLER_20_313
*1998 FILLER_20_330
*1999 FILLER_20_358
*2000 FILLER_20_6
*2001 FILLER_20_79
*2002 FILLER_20_83
*2003 FILLER_21_106
*2004 FILLER_21_122
*2005 FILLER_21_134
*2006 FILLER_21_146
*2007 FILLER_21_158
*2008 FILLER_21_166
*2009 FILLER_21_169
*2010 FILLER_21_181
*2011 FILLER_21_193
*2012 FILLER_21_20
*2013 FILLER_21_205
*2014 FILLER_21_217
*2015 FILLER_21_223
*2016 FILLER_21_225
*2017 FILLER_21_237
*2018 FILLER_21_244
*2019 FILLER_21_256
*2020 FILLER_21_260
*2021 FILLER_21_265
*2022 FILLER_21_279
*2023 FILLER_21_281
*2024 FILLER_21_289
*2025 FILLER_21_299
*2026 FILLER_21_311
*2027 FILLER_21_323
*2028 FILLER_21_335
*2029 FILLER_21_355
*2030 FILLER_21_57
*2031 FILLER_21_63
*2032 FILLER_21_73
*2033 FILLER_21_83